PV_Scenarios/PV_combined/scenario_25_combined/PV_combined20per.txt
New PVSystem.PV_1 phases=1 bus1=G2000SN8800_N274200_sec_1.3 kV=0.24 kVA=4.92 irradiance=1 Pmpp=4.1 %cutin=0.1 %cutout=0.1
New PVSystem.PV_2 phases=1 bus1=G2000SO9800_N274224_sec_2.3 kV=0.24 kVA=5.52 irradiance=1 Pmpp=4.6 %cutin=0.1 %cutout=0.1
New PVSystem.PV_3 phases=1 bus1=G2000UI6400_N283679_sec_2.3 kV=0.24 kVA=2.28 irradiance=1 Pmpp=1.9 %cutin=0.1 %cutout=0.1
New PVSystem.PV_4 phases=1 bus1=G2000UJ0800_N283722_sec_2.3 kV=0.24 kVA=1.92 irradiance=1 Pmpp=1.6 %cutin=0.1 %cutout=0.1
New PVSystem.PV_5 phases=1 bus1=G2000VI6200_N283684_sec_8.2 kV=0.24 kVA=4.2 irradiance=1 Pmpp=3.5 %cutin=0.1 %cutout=0.1
New PVSystem.PV_6 phases=1 bus1=G2000VJ0200_N283716_sec_6.2 kV=0.24 kVA=10.2 irradiance=1 Pmpp=8.5 %cutin=0.1 %cutout=0.1
New PVSystem.PV_7 phases=1 bus1=G2000WI4400_N283710_sec_1.2 kV=0.24 kVA=10.44 irradiance=1 Pmpp=8.7 %cutin=0.1 %cutout=0.1
New PVSystem.PV_8 phases=1 bus1=G2000XL8000_N283769_sec_2.1 kV=0.24 kVA=3.96 irradiance=1 Pmpp=3.3 %cutin=0.1 %cutout=0.1
New PVSystem.PV_9 phases=1 bus1=G2000YI2500_N283673_sec_2.3 kV=0.24 kVA=6.36 irradiance=1 Pmpp=5.3 %cutin=0.1 %cutout=0.1
New PVSystem.PV_10 phases=1 bus1=G2000YM2700_N283830_sec_2.1 kV=0.24 kVA=6.96 irradiance=1 Pmpp=5.8 %cutin=0.1 %cutout=0.1
New PVSystem.PV_11 phases=1 bus1=G2001SI2800_N274447_sec_5.1 kV=0.24 kVA=7.2 irradiance=1 Pmpp=6 %cutin=0.1 %cutout=0.1
New PVSystem.PV_12 phases=1 bus1=G2001SI5500_N274436_sec_3.1 kV=0.24 kVA=5.4 irradiance=1 Pmpp=4.5 %cutin=0.1 %cutout=0.1
New PVSystem.PV_13 phases=1 bus1=G2001SL9500_N284284_sec_1.2 kV=0.24 kVA=11.4 irradiance=1 Pmpp=9.5 %cutin=0.1 %cutout=0.1
New PVSystem.PV_14 phases=1 bus1=G2001TF3200_N284090_sec_3.3 kV=0.24 kVA=3.24 irradiance=1 Pmpp=2.7 %cutin=0.1 %cutout=0.1
New PVSystem.PV_15 phases=1 bus1=G2001UB4400_N283904_sec_9.3 kV=0.24 kVA=3.96 irradiance=1 Pmpp=3.3 %cutin=0.1 %cutout=0.1
New PVSystem.PV_16 phases=1 bus1=G2001UC6800_N284008_sec_1.3 kV=0.24 kVA=5.16 irradiance=1 Pmpp=4.3 %cutin=0.1 %cutout=0.1
New PVSystem.PV_17 phases=1 bus1=G2001UL2700_N284245_sec_2.2 kV=0.24 kVA=7.1329 irradiance=1 Pmpp=5.9441 %cutin=0.1 %cutout=0.1
New PVSystem.PV_18 phases=1 bus1=G2001VH7600_N284172_sec_1.3 kV=0.24 kVA=3 irradiance=1 Pmpp=2.5 %cutin=0.1 %cutout=0.1
New PVSystem.PV_19 phases=1 bus1=G2001YA0300_N283918_sec_1.3 kV=0.24 kVA=3.12 irradiance=1 Pmpp=2.6 %cutin=0.1 %cutout=0.1
New PVSystem.PV_20 phases=1 bus1=G2001YA0800_N283921_sec_4.3 kV=0.24 kVA=4.2 irradiance=1 Pmpp=3.5 %cutin=0.1 %cutout=0.1
New PVSystem.PV_21 phases=1 bus1=G2100AE9900_N283556_sec_4.3 kV=0.24 kVA=3.36 irradiance=1 Pmpp=2.8 %cutin=0.1 %cutout=0.1
New PVSystem.PV_22 phases=1 bus1=G2100AG8700_N283594_sec_5.3 kV=0.24 kVA=4.44 irradiance=1 Pmpp=3.7 %cutin=0.1 %cutout=0.1
New PVSystem.PV_23 phases=1 bus1=G2100BJ5900_N283761_sec_1.2 kV=0.24 kVA=5.7612 irradiance=1 Pmpp=4.801 %cutin=0.1 %cutout=0.1
New PVSystem.PV_24 phases=1 bus1=G2100CM6300_N283822_sec_1.3 kV=0.24 kVA=6.48 irradiance=1 Pmpp=5.4 %cutin=0.1 %cutout=0.1
New PVSystem.PV_25 phases=1 bus1=G2100DN3000_N283838_sec_2.3 kV=0.24 kVA=3.12 irradiance=1 Pmpp=2.6 %cutin=0.1 %cutout=0.1
New PVSystem.PV_26 phases=1 bus1=G2100DN4800_N283861_sec_39.3 kV=0.24 kVA=1.56 irradiance=1 Pmpp=1.3 %cutin=0.1 %cutout=0.1
New PVSystem.PV_27 phases=1 bus1=G2100EK8800_N292347_sec_8.2 kV=0.24 kVA=6 irradiance=1 Pmpp=5 %cutin=0.1 %cutout=0.1
New PVSystem.PV_28 phases=1 bus1=G2100EK8800_N292347_sec_12.2 kV=0.24 kVA=5.16 irradiance=1 Pmpp=4.3 %cutin=0.1 %cutout=0.1
New PVSystem.PV_29 phases=1 bus1=G2100EM2500_N292390_sec_9.2 kV=0.24 kVA=9 irradiance=1 Pmpp=7.5 %cutin=0.1 %cutout=0.1
New PVSystem.PV_30 phases=1 bus1=G2100EN2200_N292457_sec_35.3 kV=0.24 kVA=5.76 irradiance=1 Pmpp=4.8 %cutin=0.1 %cutout=0.1
New PVSystem.PV_31 phases=1 bus1=G2100EN8600_N292479_sec_14.3 kV=0.24 kVA=2.52 irradiance=1 Pmpp=2.1 %cutin=0.1 %cutout=0.1
New PVSystem.PV_32 phases=1 bus1=G2100EO2100_N292498_sec_10.3 kV=0.24 kVA=2.88 irradiance=1 Pmpp=2.4 %cutin=0.1 %cutout=0.1
New PVSystem.PV_33 phases=3 conn = delta bus1=G2100FO5600_N292520_sec_5.1.2.3 kV=0.48 kVA=31.56 irradiance=1 Pmpp=26.3 %cutin=0.1 %cutout=0.1
New PVSystem.PV_34 phases=3 conn = delta bus1=G2100GM5300_N292446_sec_4.1.2.3 kV=0.48 kVA=9.72 irradiance=1 Pmpp=8.1 %cutin=0.1 %cutout=0.1
New PVSystem.PV_35 phases=1 bus1=G2100GM9700_N292423_sec_4.3 kV=0.24 kVA=3.12 irradiance=1 Pmpp=2.6 %cutin=0.1 %cutout=0.1
New PVSystem.PV_36 phases=1 bus1=G2100GN0400_N292471_sec_2.1 kV=0.24 kVA=2.76 irradiance=1 Pmpp=2.3 %cutin=0.1 %cutout=0.1
New PVSystem.PV_37 phases=1 bus1=G2100GN0400_N292471_sec_15.1 kV=0.24 kVA=0.48 irradiance=1 Pmpp=0.4 %cutin=0.1 %cutout=0.1
New PVSystem.PV_38 phases=1 bus1=G2100GN7300_N292464_sec_6.1 kV=0.24 kVA=8.28 irradiance=1 Pmpp=6.9 %cutin=0.1 %cutout=0.1
New PVSystem.PV_39 phases=1 bus1=G2100GO6100_N292504_sec_6.1 kV=0.24 kVA=5.88 irradiance=1 Pmpp=4.9 %cutin=0.1 %cutout=0.1
New PVSystem.PV_40 phases=3 conn = delta bus1=G2100HE0400_N292223_sec_1.1.2.3 kV=0.48 kVA=32.6787 irradiance=1 Pmpp=27.2322 %cutin=0.1 %cutout=0.1
New PVSystem.PV_41 phases=3 conn = delta bus1=G2100HN4000_N292484_sec_2.1.2.3 kV=0.48 kVA=14.76 irradiance=1 Pmpp=12.3 %cutin=0.1 %cutout=0.1
New PVSystem.PV_42 phases=1 bus1=G2100HN5600_N292453_sec_63.3 kV=0.24 kVA=2.04 irradiance=1 Pmpp=1.7 %cutin=0.1 %cutout=0.1
New PVSystem.PV_43 phases=1 bus1=G2100IM6700_N292430_sec_28.3 kV=0.24 kVA=1.44 irradiance=1 Pmpp=1.2 %cutin=0.1 %cutout=0.1
New PVSystem.PV_44 phases=3 conn = delta bus1=G2100JL9000_N292352_sec_1.1.2.3 kV=0.48 kVA=245.5054 irradiance=1 Pmpp=204.5878 %cutin=0.1 %cutout=0.1
New PVSystem.PV_45 phases=1 bus1=G2100RN1800_N300557_sec_3.3 kV=0.24 kVA=5.16 irradiance=1 Pmpp=4.3 %cutin=0.1 %cutout=0.1
New PVSystem.PV_46 phases=1 bus1=G2100RN9500_N312395_sec_1.3 kV=0.24 kVA=3.1798 irradiance=1 Pmpp=2.6498 %cutin=0.1 %cutout=0.1
New PVSystem.PV_47 phases=1 bus1=G2100RO0400_N300576_sec_5.3 kV=0.24 kVA=2.04 irradiance=1 Pmpp=1.7 %cutin=0.1 %cutout=0.1
New PVSystem.PV_48 phases=1 bus1=G2100RO0400_N300576_sec_8.3 kV=0.24 kVA=4.44 irradiance=1 Pmpp=3.7 %cutin=0.1 %cutout=0.1
New PVSystem.PV_49 phases=1 bus1=G2100SP2100_N312536_sec_5.2 kV=0.24 kVA=5.52 irradiance=1 Pmpp=4.6 %cutin=0.1 %cutout=0.1
New PVSystem.PV_50 phases=1 bus1=G2100TO1000_N312424_sec_9.2 kV=0.24 kVA=11.52 irradiance=1 Pmpp=9.6 %cutin=0.1 %cutout=0.1
New PVSystem.PV_51 phases=1 bus1=G2101AB4600_N283913_sec_7.3 kV=0.24 kVA=5.88 irradiance=1 Pmpp=4.9 %cutin=0.1 %cutout=0.1
New PVSystem.PV_52 phases=1 bus1=G2101AK7700_N284223_sec_3.1 kV=0.24 kVA=5.64 irradiance=1 Pmpp=4.7 %cutin=0.1 %cutout=0.1
New PVSystem.PV_53 phases=1 bus1=G2101BA6700_N283900_sec_2.1 kV=0.24 kVA=3.72 irradiance=1 Pmpp=3.1 %cutin=0.1 %cutout=0.1
New PVSystem.PV_54 phases=1 bus1=G2101BK9800_N284234_sec_2.1 kV=0.24 kVA=3.36 irradiance=1 Pmpp=2.8 %cutin=0.1 %cutout=0.1
New PVSystem.PV_55 phases=1 bus1=G2101CF1100_N284085_sec_1.2 kV=0.24 kVA=9 irradiance=1 Pmpp=7.5 %cutin=0.1 %cutout=0.1
New PVSystem.PV_56 phases=1 bus1=G2101CO1900_N284311_sec_1.1 kV=0.24 kVA=10.44 irradiance=1 Pmpp=8.7 %cutin=0.1 %cutout=0.1
New PVSystem.PV_57 phases=1 bus1=G2101DC0100_N283946_sec_3.1 kV=0.24 kVA=5.28 irradiance=1 Pmpp=4.4 %cutin=0.1 %cutout=0.1
New PVSystem.PV_58 phases=1 bus1=G2101DC0100_N283946_sec_6.1 kV=0.24 kVA=6.84 irradiance=1 Pmpp=5.7 %cutin=0.1 %cutout=0.1
New PVSystem.PV_59 phases=1 bus1=G2101DD1900_N284035_sec_2.1 kV=0.24 kVA=2.88 irradiance=1 Pmpp=2.4 %cutin=0.1 %cutout=0.1
New PVSystem.PV_60 phases=1 bus1=G2101DG9100_N292718_sec_1.2 kV=0.24 kVA=5.966 irradiance=1 Pmpp=4.9716 %cutin=0.1 %cutout=0.1
New PVSystem.PV_61 phases=1 bus1=G2101EE3400_N284041_sec_4.2 kV=0.24 kVA=8.88 irradiance=1 Pmpp=7.4 %cutin=0.1 %cutout=0.1
New PVSystem.PV_62 phases=1 bus1=G2101EK5100_N292797_sec_2.2 kV=0.24 kVA=6.6117 irradiance=1 Pmpp=5.5097 %cutin=0.1 %cutout=0.1
New PVSystem.PV_63 phases=1 bus1=G2101FC9500_N292618_sec_15.1 kV=0.24 kVA=3.72 irradiance=1 Pmpp=3.1 %cutin=0.1 %cutout=0.1
New PVSystem.PV_64 phases=1 bus1=G2101FO4700_N292875_sec_4.2 kV=0.24 kVA=11.04 irradiance=1 Pmpp=9.2 %cutin=0.1 %cutout=0.1
New PVSystem.PV_65 phases=1 bus1=G2101GC9700_N292633_sec_10.1 kV=0.24 kVA=4.2 irradiance=1 Pmpp=3.5 %cutin=0.1 %cutout=0.1
New PVSystem.PV_66 phases=1 bus1=G2101HB7500_N292585_sec_6.1 kV=0.24 kVA=6.12 irradiance=1 Pmpp=5.1 %cutin=0.1 %cutout=0.1
New PVSystem.PV_67 phases=1 bus1=G2101HD3500_N292652_sec_5.1 kV=0.24 kVA=3.6 irradiance=1 Pmpp=3 %cutin=0.1 %cutout=0.1
New PVSystem.PV_68 phases=1 bus1=G2101HJ1200_N292801_sec_2.2 kV=0.24 kVA=10.5145 irradiance=1 Pmpp=8.7621 %cutin=0.1 %cutout=0.1
New PVSystem.PV_69 phases=1 bus1=G2101IJ8600_N292802_sec_3.3 kV=0.24 kVA=5.52 irradiance=1 Pmpp=4.6 %cutin=0.1 %cutout=0.1
New PVSystem.PV_70 phases=3 conn = delta bus1=G2101JA6700_N1321243_sec_5.1.2.3 kV=0.48 kVA=12 irradiance=1 Pmpp=10 %cutin=0.1 %cutout=0.1
New PVSystem.PV_71 phases=1 bus1=G2101JA8400_N300634_sec_3.1 kV=0.24 kVA=9.325 irradiance=1 Pmpp=7.7708 %cutin=0.1 %cutout=0.1
New PVSystem.PV_72 phases=1 bus1=G2101KA6200_N300623_sec_2.1 kV=0.24 kVA=2.88 irradiance=1 Pmpp=2.4 %cutin=0.1 %cutout=0.1
New PVSystem.PV_73 phases=1 bus1=G2101OA2300_N300690_sec_6.3 kV=0.24 kVA=3 irradiance=1 Pmpp=2.5 %cutin=0.1 %cutout=0.1
New PVSystem.PV_74 phases=1 bus1=G2101OA5500_N300636_sec_1.1 kV=0.24 kVA=3.84 irradiance=1 Pmpp=3.2 %cutin=0.1 %cutout=0.1
New PVSystem.PV_75 phases=1 bus1=G2101RA0900_N300678_sec_1.1 kV=0.24 kVA=5.88 irradiance=1 Pmpp=4.9 %cutin=0.1 %cutout=0.1
New PVSystem.PV_76 phases=1 bus1=G2101SA6800_N312536_sec_7.2 kV=0.24 kVA=2.28 irradiance=1 Pmpp=1.9 %cutin=0.1 %cutout=0.1
New PVSystem.PV_77 phases=1 bus1=G2102AG6500_N284433_sec_1.1 kV=0.24 kVA=2.4931 irradiance=1 Pmpp=2.0775 %cutin=0.1 %cutout=0.1
New PVSystem.PV_78 phases=1 bus1=G2102DE7300_N284356_sec_2.1 kV=0.24 kVA=6.72 irradiance=1 Pmpp=5.6 %cutin=0.1 %cutout=0.1
New PVSystem.PV_79 phases=1 bus1=G2000SK5500_N274137_sec_1.2 kV=0.24 kVA=6.6 irradiance=1 Pmpp=5.5 %cutin=0.1 %cutout=0.1
New PVSystem.PV_80 phases=1 bus1=G2000XJ7800_N283732_sec_2.2 kV=0.24 kVA=5.64 irradiance=1 Pmpp=4.7 %cutin=0.1 %cutout=0.1
New PVSystem.PV_81 phases=1 bus1=G2000XL9500_N283792_sec_3.1 kV=0.24 kVA=7.68 irradiance=1 Pmpp=6.4 %cutin=0.1 %cutout=0.1
New PVSystem.PV_82 phases=1 bus1=G2001QJ8800_N274458_sec_3.2 kV=0.24 kVA=8.04 irradiance=1 Pmpp=6.7 %cutin=0.1 %cutout=0.1
New PVSystem.PV_83 phases=1 bus1=G2001QN7500_N274552_sec_1.2 kV=0.24 kVA=13.08 irradiance=1 Pmpp=10.9 %cutin=0.1 %cutout=0.1
New PVSystem.PV_84 phases=1 bus1=G2001QN7500_N274552_sec_2.2 kV=0.24 kVA=12.8056 irradiance=1 Pmpp=10.6713 %cutin=0.1 %cutout=0.1
New PVSystem.PV_85 phases=1 bus1=G2001TC3700_N274281_sec_1.3 kV=0.24 kVA=6.24 irradiance=1 Pmpp=5.2 %cutin=0.1 %cutout=0.1
New PVSystem.PV_86 phases=1 bus1=G2001TC6700_N274291_sec_5.3 kV=0.24 kVA=4.92 irradiance=1 Pmpp=4.1 %cutin=0.1 %cutout=0.1
New PVSystem.PV_87 phases=1 bus1=G2001UD7700_N284028_sec_7.3 kV=0.24 kVA=4.32 irradiance=1 Pmpp=3.6 %cutin=0.1 %cutout=0.1
New PVSystem.PV_88 phases=1 bus1=G2001UD7700_N284028_sec_10.3 kV=0.24 kVA=5.0093 irradiance=1 Pmpp=4.1744 %cutin=0.1 %cutout=0.1
New PVSystem.PV_89 phases=1 bus1=G2001UJ5100_N284204_sec_3.2 kV=0.24 kVA=10.32 irradiance=1 Pmpp=8.6 %cutin=0.1 %cutout=0.1
New PVSystem.PV_90 phases=1 bus1=G2001VF4000_N284076_sec_1.3 kV=0.24 kVA=7.3274 irradiance=1 Pmpp=6.1062 %cutin=0.1 %cutout=0.1
New PVSystem.PV_91 phases=1 bus1=G2001VF4000_N284076_sec_2.3 kV=0.24 kVA=1.44 irradiance=1 Pmpp=1.2 %cutin=0.1 %cutout=0.1
New PVSystem.PV_92 phases=1 bus1=G2001VK4000_N284221_sec_4.2 kV=0.24 kVA=8.0647 irradiance=1 Pmpp=6.7205 %cutin=0.1 %cutout=0.1
New PVSystem.PV_93 phases=1 bus1=G2001XB6700_N283943_sec_5.3 kV=0.24 kVA=2.04 irradiance=1 Pmpp=1.7 %cutin=0.1 %cutout=0.1
New PVSystem.PV_94 phases=1 bus1=G2001XD7800_N284029_sec_1.1 kV=0.24 kVA=3.48 irradiance=1 Pmpp=2.9 %cutin=0.1 %cutout=0.1
New PVSystem.PV_95 phases=1 bus1=G2100AE4800_N283558_sec_8.3 kV=0.24 kVA=0.6 irradiance=1 Pmpp=0.5 %cutin=0.1 %cutout=0.1
New PVSystem.PV_96 phases=1 bus1=G2100AM6300_N283820_sec_1.1 kV=0.24 kVA=6.96 irradiance=1 Pmpp=5.8 %cutin=0.1 %cutout=0.1
New PVSystem.PV_97 phases=1 bus1=G2100BE8900_N283564_sec_6.3 kV=0.24 kVA=3.96 irradiance=1 Pmpp=3.3 %cutin=0.1 %cutout=0.1
New PVSystem.PV_98 phases=1 bus1=G2100BE8900_N283564_sec_7.3 kV=0.24 kVA=3.24 irradiance=1 Pmpp=2.7 %cutin=0.1 %cutout=0.1
New PVSystem.PV_99 phases=1 bus1=G2100BJ1200_N283713_sec_1.1 kV=0.24 kVA=5.88 irradiance=1 Pmpp=4.9 %cutin=0.1 %cutout=0.1
New PVSystem.PV_100 phases=1 bus1=G2100BJ5900_N283761_sec_2.2 kV=0.24 kVA=8.4 irradiance=1 Pmpp=7 %cutin=0.1 %cutout=0.1
New PVSystem.PV_101 phases=1 bus1=G2100CG0300_N283590_sec_8.3 kV=0.24 kVA=2.88 irradiance=1 Pmpp=2.4 %cutin=0.1 %cutout=0.1
New PVSystem.PV_102 phases=1 bus1=G2100CJ3000_N283718_sec_3.2 kV=0.24 kVA=6.6 irradiance=1 Pmpp=5.5 %cutin=0.1 %cutout=0.1
New PVSystem.PV_103 phases=1 bus1=G2100CK4100_N283759_sec_6.2 kV=0.24 kVA=6.72 irradiance=1 Pmpp=5.6 %cutin=0.1 %cutout=0.1
New PVSystem.PV_104 phases=1 bus1=G2100CN4000_N283847_sec_6.3 kV=0.24 kVA=2.88 irradiance=1 Pmpp=2.4 %cutin=0.1 %cutout=0.1
New PVSystem.PV_105 phases=1 bus1=G2100DG3700_N283614_sec_20.3 kV=0.24 kVA=3.36 irradiance=1 Pmpp=2.8 %cutin=0.1 %cutout=0.1
New PVSystem.PV_106 phases=1 bus1=G2100DN4800_N283861_sec_60.3 kV=0.24 kVA=2.4 irradiance=1 Pmpp=2 %cutin=0.1 %cutout=0.1
New PVSystem.PV_107 phases=1 bus1=G2100EM6500_N292425_sec_7.3 kV=0.24 kVA=2.28 irradiance=1 Pmpp=1.9 %cutin=0.1 %cutout=0.1
New PVSystem.PV_108 phases=1 bus1=G2100EN2200_N292457_sec_16.3 kV=0.24 kVA=2.16 irradiance=1 Pmpp=1.8 %cutin=0.1 %cutout=0.1
New PVSystem.PV_109 phases=1 bus1=G2100EN2200_N292457_sec_24.3 kV=0.24 kVA=3.12 irradiance=1 Pmpp=2.6 %cutin=0.1 %cutout=0.1
New PVSystem.PV_110 phases=3 conn = delta bus1=G2100FE2600_N292234_sec_11.1.2.3 kV=0.48 kVA=31.08 irradiance=1 Pmpp=25.9 %cutin=0.1 %cutout=0.1
New PVSystem.PV_111 phases=3 conn = delta bus1=G2100FH3200_N292302_sec_4.1.2.3 kV=0.48 kVA=30 irradiance=1 Pmpp=25 %cutin=0.1 %cutout=0.1
New PVSystem.PV_112 phases=1 bus1=G2100FI2200_N292320_sec_5.2 kV=0.24 kVA=4.44 irradiance=1 Pmpp=3.7 %cutin=0.1 %cutout=0.1
New PVSystem.PV_113 phases=3 conn = delta bus1=G2100FJ3800_N292380_sec_10.1.2.3 kV=0.48 kVA=7.44 irradiance=1 Pmpp=6.2 %cutin=0.1 %cutout=0.1
New PVSystem.PV_114 phases=1 bus1=G2100FL0800_N292417_sec_2.3 kV=0.24 kVA=5.04 irradiance=1 Pmpp=4.2 %cutin=0.1 %cutout=0.1
New PVSystem.PV_115 phases=3 conn = delta bus1=G2100FL1200_N292405_sec_2.1.2.3 kV=0.48 kVA=57 irradiance=1 Pmpp=47.5 %cutin=0.1 %cutout=0.1
New PVSystem.PV_116 phases=1 bus1=G2100GM9700_N292423_sec_30.3 kV=0.24 kVA=1.8 irradiance=1 Pmpp=1.5 %cutin=0.1 %cutout=0.1
New PVSystem.PV_117 phases=1 bus1=G2100GN4300_N292461_sec_2.1 kV=0.24 kVA=2.04 irradiance=1 Pmpp=1.7 %cutin=0.1 %cutout=0.1
New PVSystem.PV_118 phases=1 bus1=G2100HM3200_N292420_sec_6.3 kV=0.24 kVA=0.36 irradiance=1 Pmpp=0.3 %cutin=0.1 %cutout=0.1
New PVSystem.PV_119 phases=1 bus1=G2100HN5600_N292453_sec_59.3 kV=0.24 kVA=3 irradiance=1 Pmpp=2.5 %cutin=0.1 %cutout=0.1
New PVSystem.PV_120 phases=1 bus1=G2100IM6700_N292430_sec_22.3 kV=0.24 kVA=2.28 irradiance=1 Pmpp=1.9 %cutin=0.1 %cutout=0.1
New PVSystem.PV_121 phases=1 bus1=G2100MN4700_N300558_sec_2.2 kV=0.24 kVA=2.04 irradiance=1 Pmpp=1.7 %cutin=0.1 %cutout=0.1
New PVSystem.PV_122 phases=3 conn = delta bus1=G2100NJ8400_N300472_sec_1.1.2.3 kV=0.48 kVA=9.6 irradiance=1 Pmpp=8 %cutin=0.1 %cutout=0.1
New PVSystem.PV_123 phases=1 bus1=G2100ON6900_N300568_sec_4.1 kV=0.24 kVA=4.32 irradiance=1 Pmpp=3.6 %cutin=0.1 %cutout=0.1
New PVSystem.PV_124 phases=1 bus1=G2100OO0200_N300573_sec_1.1 kV=0.24 kVA=5.88 irradiance=1 Pmpp=4.9 %cutin=0.1 %cutout=0.1
New PVSystem.PV_125 phases=1 bus1=G2100QP9600_N300587_sec_9.2 kV=0.24 kVA=6.48 irradiance=1 Pmpp=5.4 %cutin=0.1 %cutout=0.1
New PVSystem.PV_126 phases=1 bus1=G2100RM5200_N312343_sec_2.3 kV=0.24 kVA=3.36 irradiance=1 Pmpp=2.8 %cutin=0.1 %cutout=0.1
New PVSystem.PV_127 phases=1 bus1=G2100RN0300_N300550_sec_1.3 kV=0.24 kVA=3.96 irradiance=1 Pmpp=3.3 %cutin=0.1 %cutout=0.1
New PVSystem.PV_128 phases=1 bus1=G2100RN7000_N300533_sec_7.3 kV=0.24 kVA=1.8 irradiance=1 Pmpp=1.5 %cutin=0.1 %cutout=0.1
New PVSystem.PV_129 phases=1 bus1=G2100RO6900_N312512_sec_6.3 kV=0.24 kVA=5.88 irradiance=1 Pmpp=4.9 %cutin=0.1 %cutout=0.1
New PVSystem.PV_130 phases=1 bus1=G2100RO8000_N312436_sec_1.3 kV=0.24 kVA=3.12 irradiance=1 Pmpp=2.6 %cutin=0.1 %cutout=0.1
New PVSystem.PV_131 phases=1 bus1=G2100SP2100_N312536_sec_3.2 kV=0.24 kVA=10.08 irradiance=1 Pmpp=8.4 %cutin=0.1 %cutout=0.1
New PVSystem.PV_132 phases=1 bus1=G2101BC7200_N283931_sec_4.1 kV=0.24 kVA=10.08 irradiance=1 Pmpp=8.4 %cutin=0.1 %cutout=0.1
New PVSystem.PV_133 phases=1 bus1=G2101BG9000_N284109_sec_2.3 kV=0.24 kVA=4.32 irradiance=1 Pmpp=3.6 %cutin=0.1 %cutout=0.1
New PVSystem.PV_134 phases=1 bus1=G2101CB7700_N283923_sec_1.1 kV=0.24 kVA=5.52 irradiance=1 Pmpp=4.6 %cutin=0.1 %cutout=0.1
New PVSystem.PV_135 phases=1 bus1=G2101DC0100_N283946_sec_2.1 kV=0.24 kVA=7.8 irradiance=1 Pmpp=6.5 %cutin=0.1 %cutout=0.1
New PVSystem.PV_136 phases=1 bus1=G2101DL3400_N284236_sec_1.1 kV=0.24 kVA=6.96 irradiance=1 Pmpp=5.8 %cutin=0.1 %cutout=0.1
New PVSystem.PV_137 phases=1 bus1=G2101FC8400_N292612_sec_12.2 kV=0.24 kVA=4.56 irradiance=1 Pmpp=3.8 %cutin=0.1 %cutout=0.1
New PVSystem.PV_138 phases=1 bus1=G2101FC9500_N292618_sec_12.1 kV=0.24 kVA=1.8 irradiance=1 Pmpp=1.5 %cutin=0.1 %cutout=0.1
New PVSystem.PV_139 phases=3 conn = delta bus1=G2101GA6800_N292554_sec_7.1.2.3 kV=0.48 kVA=50.4 irradiance=1 Pmpp=42 %cutin=0.1 %cutout=0.1
New PVSystem.PV_140 phases=1 bus1=G2101GC9700_N292633_sec_18.1 kV=0.24 kVA=4.44 irradiance=1 Pmpp=3.7 %cutin=0.1 %cutout=0.1
New PVSystem.PV_141 phases=1 bus1=G2101HB3500_N292585_sec_5.1 kV=0.24 kVA=7.44 irradiance=1 Pmpp=6.2 %cutin=0.1 %cutout=0.1
New PVSystem.PV_142 phases=1 bus1=G2101HD2900_N292658_sec_2.1 kV=0.24 kVA=3.36 irradiance=1 Pmpp=2.8 %cutin=0.1 %cutout=0.1
New PVSystem.PV_143 phases=1 bus1=G2101HN5200_N292851_sec_1.2 kV=0.24 kVA=11.6539 irradiance=1 Pmpp=9.7116 %cutin=0.1 %cutout=0.1
New PVSystem.PV_144 phases=1 bus1=G2101IK4600_N300997_sec_1.3 kV=0.24 kVA=9.36 irradiance=1 Pmpp=7.8 %cutin=0.1 %cutout=0.1
New PVSystem.PV_145 phases=1 bus1=G2101JK1400_N300995_sec_2.3 kV=0.24 kVA=6 irradiance=1 Pmpp=5 %cutin=0.1 %cutout=0.1
New PVSystem.PV_146 phases=1 bus1=G2101OA1800_N300620_sec_1.3 kV=0.24 kVA=6.36 irradiance=1 Pmpp=5.3 %cutin=0.1 %cutout=0.1
New PVSystem.PV_147 phases=1 bus1=G2101OB2900_N300670_sec_10.3 kV=0.24 kVA=3.36 irradiance=1 Pmpp=2.8 %cutin=0.1 %cutout=0.1
New PVSystem.PV_148 phases=1 bus1=G2101PB3000_N300676_sec_6.1 kV=0.24 kVA=8.28 irradiance=1 Pmpp=6.9 %cutin=0.1 %cutout=0.1
New PVSystem.PV_149 phases=1 bus1=G2101PB7100_N300674_sec_4.1 kV=0.24 kVA=6.72 irradiance=1 Pmpp=5.6 %cutin=0.1 %cutout=0.1
New PVSystem.PV_150 phases=1 bus1=G2101PB7100_N300674_sec_6.1 kV=0.24 kVA=3.24 irradiance=1 Pmpp=2.7 %cutin=0.1 %cutout=0.1
New PVSystem.PV_151 phases=1 bus1=G2101PC3200_N300744_sec_4.3 kV=0.24 kVA=3.2211 irradiance=1 Pmpp=2.6843 %cutin=0.1 %cutout=0.1
New PVSystem.PV_152 phases=1 bus1=G2101QA0800_N300664_sec_3.1 kV=0.24 kVA=6.4225 irradiance=1 Pmpp=5.3521 %cutin=0.1 %cutout=0.1
New PVSystem.PV_153 phases=1 bus1=G2101RA8200_N312510_sec_3.3 kV=0.24 kVA=3.36 irradiance=1 Pmpp=2.8 %cutin=0.1 %cutout=0.1
New PVSystem.PV_154 phases=1 bus1=G2101RC6500_N312606_sec_2.1 kV=0.24 kVA=4.56 irradiance=1 Pmpp=3.8 %cutin=0.1 %cutout=0.1
New PVSystem.PV_155 phases=1 bus1=G2102AF7100_N284372_sec_3.1 kV=0.24 kVA=9.3305 irradiance=1 Pmpp=7.7755 %cutin=0.1 %cutout=0.1
New PVSystem.PV_156 phases=1 bus1=G2000TL1200_N283789_sec_1.2 kV=0.24 kVA=7.44 irradiance=1 Pmpp=6.2 %cutin=0.1 %cutout=0.1
New PVSystem.PV_157 phases=1 bus1=G2000UI5400_N283699_sec_3.3 kV=0.24 kVA=3.84 irradiance=1 Pmpp=3.2 %cutin=0.1 %cutout=0.1
New PVSystem.PV_158 phases=1 bus1=G2000UJ3600_N283731_sec_4.2 kV=0.24 kVA=6.36 irradiance=1 Pmpp=5.3 %cutin=0.1 %cutout=0.1
New PVSystem.PV_159 phases=1 bus1=G2000UL3200_N283772_sec_7.2 kV=0.24 kVA=6.48 irradiance=1 Pmpp=5.4 %cutin=0.1 %cutout=0.1
New PVSystem.PV_160 phases=1 bus1=G2000WL9300_N283779_sec_2.2 kV=0.24 kVA=8.4 irradiance=1 Pmpp=7 %cutin=0.1 %cutout=0.1
New PVSystem.PV_161 phases=1 bus1=G2000WN0100_N283840_sec_1.2 kV=0.24 kVA=9.8317 irradiance=1 Pmpp=8.1931 %cutin=0.1 %cutout=0.1
New PVSystem.PV_162 phases=1 bus1=G2000XH4800_N283608_sec_3.2 kV=0.24 kVA=9.9374 irradiance=1 Pmpp=8.2812 %cutin=0.1 %cutout=0.1
New PVSystem.PV_163 phases=1 bus1=G2001QJ8800_N274458_sec_1.2 kV=0.24 kVA=9.8057 irradiance=1 Pmpp=8.1715 %cutin=0.1 %cutout=0.1
New PVSystem.PV_164 phases=1 bus1=G2001RH4100_N274394_sec_7.2 kV=0.24 kVA=18.72 irradiance=1 Pmpp=15.6 %cutin=0.1 %cutout=0.1
New PVSystem.PV_165 phases=1 bus1=G2001SH3700_N274411_sec_5.1 kV=0.24 kVA=6.12 irradiance=1 Pmpp=5.1 %cutin=0.1 %cutout=0.1
New PVSystem.PV_166 phases=1 bus1=G2001SI2800_N274447_sec_6.1 kV=0.24 kVA=5.64 irradiance=1 Pmpp=4.7 %cutin=0.1 %cutout=0.1
New PVSystem.PV_167 phases=1 bus1=G2001UF3600_N284081_sec_1.3 kV=0.24 kVA=4.8 irradiance=1 Pmpp=4 %cutin=0.1 %cutout=0.1
New PVSystem.PV_168 phases=1 bus1=G2001UF5200_N284089_sec_2.3 kV=0.24 kVA=6 irradiance=1 Pmpp=5 %cutin=0.1 %cutout=0.1
New PVSystem.PV_169 phases=1 bus1=G2001VD4400_N284006_sec_10.3 kV=0.24 kVA=4.92 irradiance=1 Pmpp=4.1 %cutin=0.1 %cutout=0.1
New PVSystem.PV_170 phases=1 bus1=G2001VD6400_N283955_sec_4.3 kV=0.24 kVA=3.96 irradiance=1 Pmpp=3.3 %cutin=0.1 %cutout=0.1
New PVSystem.PV_171 phases=1 bus1=G2001VK3300_N284221_sec_2.2 kV=0.24 kVA=5.52 irradiance=1 Pmpp=4.6 %cutin=0.1 %cutout=0.1
New PVSystem.PV_172 phases=1 bus1=G2001VK9500_N284225_sec_2.2 kV=0.24 kVA=10.6291 irradiance=1 Pmpp=8.8576 %cutin=0.1 %cutout=0.1
New PVSystem.PV_173 phases=1 bus1=G2001WB3100_N283924_sec_3.3 kV=0.24 kVA=6.6 irradiance=1 Pmpp=5.5 %cutin=0.1 %cutout=0.1
New PVSystem.PV_174 phases=1 bus1=G2001WF7000_N284116_sec_1.3 kV=0.24 kVA=7.08 irradiance=1 Pmpp=5.9 %cutin=0.1 %cutout=0.1
New PVSystem.PV_175 phases=1 bus1=G2001WG1100_N284110_sec_1.3 kV=0.24 kVA=7.08 irradiance=1 Pmpp=5.9 %cutin=0.1 %cutout=0.1
New PVSystem.PV_176 phases=1 bus1=G2001XC7500_N283961_sec_2.3 kV=0.24 kVA=4.32 irradiance=1 Pmpp=3.6 %cutin=0.1 %cutout=0.1
New PVSystem.PV_177 phases=1 bus1=G2100AE4800_N283558_sec_7.3 kV=0.24 kVA=3.24 irradiance=1 Pmpp=2.7 %cutin=0.1 %cutout=0.1
New PVSystem.PV_178 phases=1 bus1=G2100AH8200_N283618_sec_2.3 kV=0.24 kVA=6.24 irradiance=1 Pmpp=5.2 %cutin=0.1 %cutout=0.1
New PVSystem.PV_179 phases=1 bus1=G2100AN3400_N283862_sec_2.3 kV=0.24 kVA=4.32 irradiance=1 Pmpp=3.6 %cutin=0.1 %cutout=0.1
New PVSystem.PV_180 phases=1 bus1=G2100BJ1200_N283713_sec_2.1 kV=0.24 kVA=0 irradiance=1 Pmpp=0 %cutin=0.1 %cutout=0.1
New PVSystem.PV_181 phases=1 bus1=G2100BJ2200_N283714_sec_2.2 kV=0.24 kVA=6.84 irradiance=1 Pmpp=5.7 %cutin=0.1 %cutout=0.1
New PVSystem.PV_182 phases=1 bus1=G2100BL0800_N283800_sec_3.1 kV=0.24 kVA=7.68 irradiance=1 Pmpp=6.4 %cutin=0.1 %cutout=0.1
New PVSystem.PV_183 phases=1 bus1=G2100BL8300_N283778_sec_4.1 kV=0.24 kVA=5.76 irradiance=1 Pmpp=4.8 %cutin=0.1 %cutout=0.1
New PVSystem.PV_184 phases=1 bus1=G2100BN9700_N283853_sec_3.3 kV=0.24 kVA=2.4 irradiance=1 Pmpp=2 %cutin=0.1 %cutout=0.1
New PVSystem.PV_185 phases=1 bus1=G2100CH7400_N283632_sec_10.3 kV=0.24 kVA=2.64 irradiance=1 Pmpp=2.2 %cutin=0.1 %cutout=0.1
New PVSystem.PV_186 phases=1 bus1=G2100CK4000_N283780_sec_4.2 kV=0.24 kVA=5.28 irradiance=1 Pmpp=4.4 %cutin=0.1 %cutout=0.1
New PVSystem.PV_187 phases=1 bus1=G2100CN9200_N283841_sec_1.3 kV=0.24 kVA=1.92 irradiance=1 Pmpp=1.6 %cutin=0.1 %cutout=0.1
New PVSystem.PV_188 phases=1 bus1=G2100DM6300_N283816_sec_4.3 kV=0.24 kVA=2.16 irradiance=1 Pmpp=1.8 %cutin=0.1 %cutout=0.1
New PVSystem.PV_189 phases=1 bus1=G2100DN4800_N283861_sec_55.3 kV=0.24 kVA=1.92 irradiance=1 Pmpp=1.6 %cutin=0.1 %cutout=0.1
New PVSystem.PV_190 phases=1 bus1=G2100EK1100_N292334_sec_7.2 kV=0.24 kVA=8.16 irradiance=1 Pmpp=6.8 %cutin=0.1 %cutout=0.1
New PVSystem.PV_191 phases=1 bus1=G2100EK8800_N292347_sec_15.2 kV=0.24 kVA=10.3518 irradiance=1 Pmpp=8.6265 %cutin=0.1 %cutout=0.1
New PVSystem.PV_192 phases=1 bus1=G2100EN2200_N292457_sec_22.3 kV=0.24 kVA=1.2 irradiance=1 Pmpp=1 %cutin=0.1 %cutout=0.1
New PVSystem.PV_193 phases=1 bus1=G2100EN8600_N292479_sec_9.3 kV=0.24 kVA=2.04 irradiance=1 Pmpp=1.7 %cutin=0.1 %cutout=0.1
New PVSystem.PV_194 phases=1 bus1=G2100FK5800_N292373_sec_7.2 kV=0.24 kVA=3.72 irradiance=1 Pmpp=3.1 %cutin=0.1 %cutout=0.1
New PVSystem.PV_195 phases=3 conn = delta bus1=G2100FL1200_N292405_sec_1.1.2.3 kV=0.48 kVA=55.08 irradiance=1 Pmpp=45.9 %cutin=0.1 %cutout=0.1
New PVSystem.PV_196 phases=1 bus1=G2100FL3500_N292410_sec_7.2 kV=0.24 kVA=0.96 irradiance=1 Pmpp=0.8 %cutin=0.1 %cutout=0.1
New PVSystem.PV_197 phases=1 bus1=G2100GM9700_N292423_sec_34.3 kV=0.24 kVA=2.76 irradiance=1 Pmpp=2.3 %cutin=0.1 %cutout=0.1
New PVSystem.PV_198 phases=1 bus1=G2100HM3200_N292420_sec_21.3 kV=0.24 kVA=3.24 irradiance=1 Pmpp=2.7 %cutin=0.1 %cutout=0.1
New PVSystem.PV_199 phases=1 bus1=G2100HM9900_N292433_sec_3.3 kV=0.24 kVA=2.16 irradiance=1 Pmpp=1.8 %cutin=0.1 %cutout=0.1
New PVSystem.PV_200 phases=1 bus1=G2100HM9900_N292433_sec_31.3 kV=0.24 kVA=3 irradiance=1 Pmpp=2.5 %cutin=0.1 %cutout=0.1
...
